
**** 04/23/25 16:11:59 **** PSpice 23.1.0 (30 January 2024) *** ID# 0 ********

 ** Profile: "SCHEMATIC1-ACsim"  [ c:\users\35191\onedrive - instituto superior de engenharia do porto\desktop\pesta\pspice\audioin\a


 ****     CIRCUIT DESCRIPTION


******************************************************************************




** Creating circuit file "ACsim.cir" 
** WARNING: THIS AUTOMATICALLY GENERATED FILE MAY BE OVERWRITTEN BY SUBSEQUENT SIMULATIONS

*Libraries: 
* Profile Libraries :
* Local Libraries :
* From [PSPICE NETLIST] section of C:\cds_spb_home\cdssetup\OrCAD_PSpiceTIPSpice_Install\23.1.0\PSpice.ini file:
.lib "nom_pspti.lib" 
.lib "nom.lib" 

*Analysis directives: 
.TRAN  0 2ms 0 
.OPTIONS ADVCONV
.OPTIONS FILEMODELSEARCH
.PROBE64 V(alias(*)) I(alias(*)) W(alias(*)) D(alias(*)) NOISE(alias(*)) 
.INC "..\SCHEMATIC1.net" 



**** INCLUDING SCHEMATIC1.net ****
* source AUDIOIN
.EXTERNAL OUTPUT 5V
.EXTERNAL OUTPUT VCC+
.EXTERNAL OUTPUT VCC-
.EXTERNAL OUTPUT VREF
C_C10         0 N02426  2.66n  TC=0,0 
R_R9         N02426 N02884  10k TC=0,0 
R_R7         N02282 N02330  10k TC=0,0 
C_C9         0 N02452  0.972n  TC=0,0 
C_C6         N02282 N02124  3.19n  TC=0,0 
R_R10         N02884 N02452  10k TC=0,0 
C_C7         N02884 N02146  3.05n  TC=0,0 
C_C8         0 N02330  1.24n  TC=0,0 
E_U3         N02124 0 VALUE {LIMIT(V(N02330,N02124)*1E6,-15V,+15V)}
V_V2         N02416 0 DC 0Vdc AC 1Vac 
E_U4         N02146 0 VALUE {LIMIT(V(N02452,N02146)*1E6,-15V,+15V)}
R_R6         N02146 N02282  10k TC=0,0 
R_R8         N02416 N02426  10k TC=0,0 
E_U5         N03864 0 VALUE {LIMIT(V(N03986,N03864)*1E6,-15V,+15V)}
R_R11         N02124 N03928  10k TC=0,0 
C_C11         N03928 N03864  8.94n  TC=0,0 
C_C12         0 N03986  0.448n  TC=0,0 
R_R12         N03928 N03986  10k TC=0,0 
R_R13         N05975 N05873  50.8k TC=0,0 
R_R16         N05881 N05911  10k TC=0,0 
R_R17         N05911 N05921  10k TC=0,0 
V_V3         N05975 0  AC 0
+SIN 0 2 1kHz 0 0 0
V_V4         5V 0 5
R_R14         VREF N05873  50.8k TC=0,0 
R_R15         N05873 N05881  10k TC=0,0 
X_U8         N07263 VREF VCC+ VCC- VREF UA741
V_V5         VCC+ 0 15
V_V6         VCC- 0 -15
R_R18         N07263 5V  10k TC=0,0 
R_R19         0 N07263  10k TC=0,0 
X_U9         0 N05873 VCC- VCC+ N05881 UA741
X_U10         0 N05911 VCC- VCC+ N05921 UA741

**** RESUMING ACsim.cir ****
.END

**** 04/23/25 16:11:59 **** PSpice 23.1.0 (30 January 2024) *** ID# 0 ********

 ** Profile: "SCHEMATIC1-ACsim"  [ c:\users\35191\onedrive - instituto superior de engenharia do porto\desktop\pesta\pspice\audioin\a


 ****     Diode MODEL PARAMETERS


******************************************************************************




               X_U8.DX         X_U9.DX         X_U10.DX        
          IS  800.000000E-18  800.000000E-18  800.000000E-18 


**** 04/23/25 16:11:59 **** PSpice 23.1.0 (30 January 2024) *** ID# 0 ********

 ** Profile: "SCHEMATIC1-ACsim"  [ c:\users\35191\onedrive - instituto superior de engenharia do porto\desktop\pesta\pspice\audioin\a


 ****     BJT MODEL PARAMETERS


******************************************************************************




               X_U8.QX         X_U9.QX         X_U10.QX        
               NPN             NPN             NPN             
       LEVEL    1               1               1            
          IS  800.000000E-18  800.000000E-18  800.000000E-18 
          BF   62.5            62.5            62.5          
          NF    1               1               1            
          BR    1               1               1            
          NR    1               1               1            
         ISS    0               0               0            
          RE    0               0               0            
          RC    0               0               0            
         CJE    0               0               0            
         VJE     .75             .75             .75         
         CJC    0               0               0            
         VJC     .75             .75             .75         
         MJC     .33             .33             .33         
        XCJC    1               1               1            
         CJS    0               0               0            
         VJS     .75             .75             .75         
          KF    0               0               0            
          AF    1               1               1            
          CN    2.42            2.42            2.42         
           D     .87             .87             .87         


WARNING -- Exceptionally high value of junction voltage (1.852e+01) or low value of thermal voltage (2.586e-02) is seen in device X_U10.DLN that may lead to math overflow.
To avoid this, try to lower the junction voltage by increasing RS (Series Resistance) or N (ideality factor) parameter values in the model.

WARNING -- Exceptionally high value of junction voltage (1.900e+01) or low value of thermal voltage (2.586e-02) is seen in device X_U10.DLN that may lead to math overflow.
To avoid this, try to lower the junction voltage by increasing RS (Series Resistance) or N (ideality factor) parameter values in the model.

WARNING -- Exceptionally high value of junction voltage (1.947e+01) or low value of thermal voltage (2.586e-02) is seen in device X_U10.DLN that may lead to math overflow.
To avoid this, try to lower the junction voltage by increasing RS (Series Resistance) or N (ideality factor) parameter values in the model.

WARNING -- Exceptionally high value of junction voltage (1.995e+01) or low value of thermal voltage (2.586e-02) is seen in device X_U10.DLN that may lead to math overflow.
To avoid this, try to lower the junction voltage by increasing RS (Series Resistance) or N (ideality factor) parameter values in the model.

WARNING -- Exceptionally high value of junction voltage (2.043e+01) or low value of thermal voltage (2.586e-02) is seen in device X_U10.DLN that may lead to math overflow.
To avoid this, try to lower the junction voltage by increasing RS (Series Resistance) or N (ideality factor) parameter values in the model.

WARNING -- Exceptionally high value of junction voltage (2.090e+01) or low value of thermal voltage (2.586e-02) is seen in device X_U10.DLN that may lead to math overflow.
To avoid this, try to lower the junction voltage by increasing RS (Series Resistance) or N (ideality factor) parameter values in the model.

WARNING -- Exceptionally high value of junction voltage (2.138e+01) or low value of thermal voltage (2.586e-02) is seen in device X_U10.DLN that may lead to math overflow.
To avoid this, try to lower the junction voltage by increasing RS (Series Resistance) or N (ideality factor) parameter values in the model.

WARNING -- Exceptionally high value of junction voltage (2.185e+01) or low value of thermal voltage (2.586e-02) is seen in device X_U10.DLN that may lead to math overflow.
To avoid this, try to lower the junction voltage by increasing RS (Series Resistance) or N (ideality factor) parameter values in the model.

WARNING -- Exceptionally high value of junction voltage (2.233e+01) or low value of thermal voltage (2.586e-02) is seen in device X_U10.DLN that may lead to math overflow.
To avoid this, try to lower the junction voltage by increasing RS (Series Resistance) or N (ideality factor) parameter values in the model.

WARNING -- Exceptionally high value of junction voltage (2.281e+01) or low value of thermal voltage (2.586e-02) is seen in device X_U10.DLN that may lead to math overflow.
To avoid this, try to lower the junction voltage by increasing RS (Series Resistance) or N (ideality factor) parameter values in the model.

WARNING -- Exceptionally high value of junction voltage (2.328e+01) or low value of thermal voltage (2.586e-02) is seen in device X_U10.DLN that may lead to math overflow.
To avoid this, try to lower the junction voltage by increasing RS (Series Resistance) or N (ideality factor) parameter values in the model.

WARNING -- Exceptionally high value of junction voltage (2.376e+01) or low value of thermal voltage (2.586e-02) is seen in device X_U10.DLN that may lead to math overflow.
To avoid this, try to lower the junction voltage by increasing RS (Series Resistance) or N (ideality factor) parameter values in the model.

WARNING -- Exceptionally high value of junction voltage (2.424e+01) or low value of thermal voltage (2.586e-02) is seen in device X_U10.DLN that may lead to math overflow.
To avoid this, try to lower the junction voltage by increasing RS (Series Resistance) or N (ideality factor) parameter values in the model.

WARNING -- Exceptionally high value of junction voltage (2.471e+01) or low value of thermal voltage (2.586e-02) is seen in device X_U10.DLN that may lead to math overflow.
To avoid this, try to lower the junction voltage by increasing RS (Series Resistance) or N (ideality factor) parameter values in the model.

WARNING -- Exceptionally high value of junction voltage (2.519e+01) or low value of thermal voltage (2.586e-02) is seen in device X_U10.DLN that may lead to math overflow.
To avoid this, try to lower the junction voltage by increasing RS (Series Resistance) or N (ideality factor) parameter values in the model.

WARNING -- Exceptionally high value of junction voltage (2.567e+01) or low value of thermal voltage (2.586e-02) is seen in device X_U10.DLN that may lead to math overflow.
To avoid this, try to lower the junction voltage by increasing RS (Series Resistance) or N (ideality factor) parameter values in the model.

WARNING -- Exceptionally high value of junction voltage (2.614e+01) or low value of thermal voltage (2.586e-02) is seen in device X_U10.DLN that may lead to math overflow.
To avoid this, try to lower the junction voltage by increasing RS (Series Resistance) or N (ideality factor) parameter values in the model.

WARNING -- Exceptionally high value of junction voltage (2.662e+01) or low value of thermal voltage (2.586e-02) is seen in device X_U10.DLN that may lead to math overflow.
To avoid this, try to lower the junction voltage by increasing RS (Series Resistance) or N (ideality factor) parameter values in the model.

WARNING -- Exceptionally high value of junction voltage (2.710e+01) or low value of thermal voltage (2.586e-02) is seen in device X_U10.DLN that may lead to math overflow.
To avoid this, try to lower the junction voltage by increasing RS (Series Resistance) or N (ideality factor) parameter values in the model.

WARNING -- Exceptionally high value of junction voltage (2.757e+01) or low value of thermal voltage (2.586e-02) is seen in device X_U10.DLN that may lead to math overflow.
To avoid this, try to lower the junction voltage by increasing RS (Series Resistance) or N (ideality factor) parameter values in the model.

WARNING -- Exceptionally high value of junction voltage (2.805e+01) or low value of thermal voltage (2.586e-02) is seen in device X_U10.DLN that may lead to math overflow.
To avoid this, try to lower the junction voltage by increasing RS (Series Resistance) or N (ideality factor) parameter values in the model.

WARNING -- Exceptionally high value of junction voltage (2.853e+01) or low value of thermal voltage (2.586e-02) is seen in device X_U10.DLN that may lead to math overflow.
To avoid this, try to lower the junction voltage by increasing RS (Series Resistance) or N (ideality factor) parameter values in the model.

WARNING -- Exceptionally high value of junction voltage (2.900e+01) or low value of thermal voltage (2.586e-02) is seen in device X_U10.DLN that may lead to math overflow.
To avoid this, try to lower the junction voltage by increasing RS (Series Resistance) or N (ideality factor) parameter values in the model.

WARNING -- Exceptionally high value of junction voltage (2.948e+01) or low value of thermal voltage (2.586e-02) is seen in device X_U10.DLN that may lead to math overflow.
To avoid this, try to lower the junction voltage by increasing RS (Series Resistance) or N (ideality factor) parameter values in the model.

WARNING -- Exceptionally high value of junction voltage (2.995e+01) or low value of thermal voltage (2.586e-02) is seen in device X_U10.DLN that may lead to math overflow.
To avoid this, try to lower the junction voltage by increasing RS (Series Resistance) or N (ideality factor) parameter values in the model.

WARNING -- Exceptionally high value of junction voltage (3.043e+01) or low value of thermal voltage (2.586e-02) is seen in device X_U10.DLN that may lead to math overflow.
To avoid this, try to lower the junction voltage by increasing RS (Series Resistance) or N (ideality factor) parameter values in the model.

WARNING -- Exceptionally high value of junction voltage (3.091e+01) or low value of thermal voltage (2.586e-02) is seen in device X_U10.DLN that may lead to math overflow.
To avoid this, try to lower the junction voltage by increasing RS (Series Resistance) or N (ideality factor) parameter values in the model.

WARNING -- Exceptionally high value of junction voltage (3.138e+01) or low value of thermal voltage (2.586e-02) is seen in device X_U10.DLN that may lead to math overflow.
To avoid this, try to lower the junction voltage by increasing RS (Series Resistance) or N (ideality factor) parameter values in the model.

WARNING -- Exceptionally high value of junction voltage (3.186e+01) or low value of thermal voltage (2.586e-02) is seen in device X_U10.DLN that may lead to math overflow.
To avoid this, try to lower the junction voltage by increasing RS (Series Resistance) or N (ideality factor) parameter values in the model.

WARNING -- Exceptionally high value of junction voltage (3.234e+01) or low value of thermal voltage (2.586e-02) is seen in device X_U10.DLN that may lead to math overflow.
To avoid this, try to lower the junction voltage by increasing RS (Series Resistance) or N (ideality factor) parameter values in the model.

WARNING -- Exceptionally high value of junction voltage (3.281e+01) or low value of thermal voltage (2.586e-02) is seen in device X_U10.DLN that may lead to math overflow.
To avoid this, try to lower the junction voltage by increasing RS (Series Resistance) or N (ideality factor) parameter values in the model.

WARNING -- Exceptionally high value of junction voltage (3.329e+01) or low value of thermal voltage (2.586e-02) is seen in device X_U10.DLN that may lead to math overflow.
To avoid this, try to lower the junction voltage by increasing RS (Series Resistance) or N (ideality factor) parameter values in the model.

WARNING -- Exceptionally high value of junction voltage (3.377e+01) or low value of thermal voltage (2.586e-02) is seen in device X_U10.DLN that may lead to math overflow.
To avoid this, try to lower the junction voltage by increasing RS (Series Resistance) or N (ideality factor) parameter values in the model.

WARNING -- Exceptionally high value of junction voltage (3.424e+01) or low value of thermal voltage (2.586e-02) is seen in device X_U10.DLN that may lead to math overflow.
To avoid this, try to lower the junction voltage by increasing RS (Series Resistance) or N (ideality factor) parameter values in the model.

WARNING -- Exceptionally high value of junction voltage (3.472e+01) or low value of thermal voltage (2.586e-02) is seen in device X_U10.DLN that may lead to math overflow.
To avoid this, try to lower the junction voltage by increasing RS (Series Resistance) or N (ideality factor) parameter values in the model.

WARNING -- Exceptionally high value of junction voltage (3.520e+01) or low value of thermal voltage (2.586e-02) is seen in device X_U10.DLN that may lead to math overflow.
To avoid this, try to lower the junction voltage by increasing RS (Series Resistance) or N (ideality factor) parameter values in the model.

WARNING -- Exceptionally high value of junction voltage (3.567e+01) or low value of thermal voltage (2.586e-02) is seen in device X_U10.DLN that may lead to math overflow.
To avoid this, try to lower the junction voltage by increasing RS (Series Resistance) or N (ideality factor) parameter values in the model.

WARNING -- Exceptionally high value of junction voltage (3.615e+01) or low value of thermal voltage (2.586e-02) is seen in device X_U10.DLN that may lead to math overflow.
To avoid this, try to lower the junction voltage by increasing RS (Series Resistance) or N (ideality factor) parameter values in the model.

WARNING -- Exceptionally high value of junction voltage (3.663e+01) or low value of thermal voltage (2.586e-02) is seen in device X_U10.DLN that may lead to math overflow.
To avoid this, try to lower the junction voltage by increasing RS (Series Resistance) or N (ideality factor) parameter values in the model.

WARNING -- Exceptionally high value of junction voltage (3.710e+01) or low value of thermal voltage (2.586e-02) is seen in device X_U10.DLN that may lead to math overflow.
To avoid this, try to lower the junction voltage by increasing RS (Series Resistance) or N (ideality factor) parameter values in the model.

WARNING -- Exceptionally high value of junction voltage (3.758e+01) or low value of thermal voltage (2.586e-02) is seen in device X_U10.DLN that may lead to math overflow.
To avoid this, try to lower the junction voltage by increasing RS (Series Resistance) or N (ideality factor) parameter values in the model.

WARNING -- Exceptionally high value of junction voltage (3.805e+01) or low value of thermal voltage (2.586e-02) is seen in device X_U10.DLN that may lead to math overflow.
To avoid this, try to lower the junction voltage by increasing RS (Series Resistance) or N (ideality factor) parameter values in the model.

WARNING -- Exceptionally high value of junction voltage (3.853e+01) or low value of thermal voltage (2.586e-02) is seen in device X_U10.DLN that may lead to math overflow.
To avoid this, try to lower the junction voltage by increasing RS (Series Resistance) or N (ideality factor) parameter values in the model.

WARNING -- Exceptionally high value of junction voltage (3.901e+01) or low value of thermal voltage (2.586e-02) is seen in device X_U10.DLN that may lead to math overflow.
To avoid this, try to lower the junction voltage by increasing RS (Series Resistance) or N (ideality factor) parameter values in the model.

WARNING -- Exceptionally high value of junction voltage (3.948e+01) or low value of thermal voltage (2.586e-02) is seen in device X_U10.DLN that may lead to math overflow.
To avoid this, try to lower the junction voltage by increasing RS (Series Resistance) or N (ideality factor) parameter values in the model.

WARNING -- Exceptionally high value of junction voltage (3.996e+01) or low value of thermal voltage (2.586e-02) is seen in device X_U10.DLN that may lead to math overflow.
To avoid this, try to lower the junction voltage by increasing RS (Series Resistance) or N (ideality factor) parameter values in the model.

WARNING -- Exceptionally high value of junction voltage (4.044e+01) or low value of thermal voltage (2.586e-02) is seen in device X_U10.DLN that may lead to math overflow.
To avoid this, try to lower the junction voltage by increasing RS (Series Resistance) or N (ideality factor) parameter values in the model.

WARNING -- Exceptionally high value of junction voltage (4.091e+01) or low value of thermal voltage (2.586e-02) is seen in device X_U10.DLN that may lead to math overflow.
To avoid this, try to lower the junction voltage by increasing RS (Series Resistance) or N (ideality factor) parameter values in the model.

WARNING -- Exceptionally high value of junction voltage (4.139e+01) or low value of thermal voltage (2.586e-02) is seen in device X_U10.DLN that may lead to math overflow.
To avoid this, try to lower the junction voltage by increasing RS (Series Resistance) or N (ideality factor) parameter values in the model.

WARNING -- Exceptionally high value of junction voltage (4.187e+01) or low value of thermal voltage (2.586e-02) is seen in device X_U10.DLN that may lead to math overflow.
To avoid this, try to lower the junction voltage by increasing RS (Series Resistance) or N (ideality factor) parameter values in the model.

WARNING -- Exceptionally high value of junction voltage (4.234e+01) or low value of thermal voltage (2.586e-02) is seen in device X_U10.DLN that may lead to math overflow.
To avoid this, try to lower the junction voltage by increasing RS (Series Resistance) or N (ideality factor) parameter values in the model.

WARNING -- Exceptionally high value of junction voltage (4.282e+01) or low value of thermal voltage (2.586e-02) is seen in device X_U10.DLN that may lead to math overflow.
To avoid this, try to lower the junction voltage by increasing RS (Series Resistance) or N (ideality factor) parameter values in the model.

WARNING -- Exceptionally high value of junction voltage (4.330e+01) or low value of thermal voltage (2.586e-02) is seen in device X_U10.DLN that may lead to math overflow.
To avoid this, try to lower the junction voltage by increasing RS (Series Resistance) or N (ideality factor) parameter values in the model.

WARNING -- Exceptionally high value of junction voltage (4.377e+01) or low value of thermal voltage (2.586e-02) is seen in device X_U10.DLN that may lead to math overflow.
To avoid this, try to lower the junction voltage by increasing RS (Series Resistance) or N (ideality factor) parameter values in the model.

WARNING -- Exceptionally high value of junction voltage (4.425e+01) or low value of thermal voltage (2.586e-02) is seen in device X_U10.DLN that may lead to math overflow.
To avoid this, try to lower the junction voltage by increasing RS (Series Resistance) or N (ideality factor) parameter values in the model.

WARNING -- Exceptionally high value of junction voltage (4.473e+01) or low value of thermal voltage (2.586e-02) is seen in device X_U10.DLN that may lead to math overflow.
To avoid this, try to lower the junction voltage by increasing RS (Series Resistance) or N (ideality factor) parameter values in the model.

WARNING -- Exceptionally high value of junction voltage (4.520e+01) or low value of thermal voltage (2.586e-02) is seen in device X_U10.DLN that may lead to math overflow.
To avoid this, try to lower the junction voltage by increasing RS (Series Resistance) or N (ideality factor) parameter values in the model.

WARNING -- Exceptionally high value of junction voltage (4.568e+01) or low value of thermal voltage (2.586e-02) is seen in device X_U10.DLN that may lead to math overflow.
To avoid this, try to lower the junction voltage by increasing RS (Series Resistance) or N (ideality factor) parameter values in the model.

WARNING -- Exceptionally high value of junction voltage (4.615e+01) or low value of thermal voltage (2.586e-02) is seen in device X_U10.DLN that may lead to math overflow.
To avoid this, try to lower the junction voltage by increasing RS (Series Resistance) or N (ideality factor) parameter values in the model.

WARNING -- Exceptionally high value of junction voltage (1.830e+01) or low value of thermal voltage (2.586e-02) is seen in device X_U9.DP that may lead to math overflow.
To avoid this, try to lower the junction voltage by increasing RS (Series Resistance) or N (ideality factor) parameter values in the model.

WARNING -- Exceptionally high value of junction voltage (4.663e+01) or low value of thermal voltage (2.586e-02) is seen in device X_U10.DLN that may lead to math overflow.
To avoid this, try to lower the junction voltage by increasing RS (Series Resistance) or N (ideality factor) parameter values in the model.

WARNING -- Exceptionally high value of junction voltage (1.830e+01) or low value of thermal voltage (2.586e-02) is seen in device X_U10.DP that may lead to math overflow.
To avoid this, try to lower the junction voltage by increasing RS (Series Resistance) or N (ideality factor) parameter values in the model.

WARNING -- Exceptionally high value of junction voltage (1.846e+01) or low value of thermal voltage (2.586e-02) is seen in device X_U9.DP that may lead to math overflow.
To avoid this, try to lower the junction voltage by increasing RS (Series Resistance) or N (ideality factor) parameter values in the model.

WARNING -- Exceptionally high value of junction voltage (4.711e+01) or low value of thermal voltage (2.586e-02) is seen in device X_U10.DLN that may lead to math overflow.
To avoid this, try to lower the junction voltage by increasing RS (Series Resistance) or N (ideality factor) parameter values in the model.

WARNING -- Exceptionally high value of junction voltage (1.846e+01) or low value of thermal voltage (2.586e-02) is seen in device X_U10.DP that may lead to math overflow.
To avoid this, try to lower the junction voltage by increasing RS (Series Resistance) or N (ideality factor) parameter values in the model.

WARNING -- Exceptionally high value of junction voltage (1.862e+01) or low value of thermal voltage (2.586e-02) is seen in device X_U9.DP that may lead to math overflow.
To avoid this, try to lower the junction voltage by increasing RS (Series Resistance) or N (ideality factor) parameter values in the model.

WARNING -- Exceptionally high value of junction voltage (4.758e+01) or low value of thermal voltage (2.586e-02) is seen in device X_U10.DLN that may lead to math overflow.
To avoid this, try to lower the junction voltage by increasing RS (Series Resistance) or N (ideality factor) parameter values in the model.

WARNING -- Exceptionally high value of junction voltage (1.862e+01) or low value of thermal voltage (2.586e-02) is seen in device X_U10.DP that may lead to math overflow.
To avoid this, try to lower the junction voltage by increasing RS (Series Resistance) or N (ideality factor) parameter values in the model.

WARNING -- Exceptionally high value of junction voltage (1.878e+01) or low value of thermal voltage (2.586e-02) is seen in device X_U9.DP that may lead to math overflow.
To avoid this, try to lower the junction voltage by increasing RS (Series Resistance) or N (ideality factor) parameter values in the model.

WARNING -- Exceptionally high value of junction voltage (4.806e+01) or low value of thermal voltage (2.586e-02) is seen in device X_U10.DLN that may lead to math overflow.
To avoid this, try to lower the junction voltage by increasing RS (Series Resistance) or N (ideality factor) parameter values in the model.

WARNING -- Exceptionally high value of junction voltage (1.878e+01) or low value of thermal voltage (2.586e-02) is seen in device X_U10.DP that may lead to math overflow.
To avoid this, try to lower the junction voltage by increasing RS (Series Resistance) or N (ideality factor) parameter values in the model.

WARNING -- Exceptionally high value of junction voltage (1.893e+01) or low value of thermal voltage (2.586e-02) is seen in device X_U9.DP that may lead to math overflow.
To avoid this, try to lower the junction voltage by increasing RS (Series Resistance) or N (ideality factor) parameter values in the model.

WARNING -- Exceptionally high value of junction voltage (4.854e+01) or low value of thermal voltage (2.586e-02) is seen in device X_U10.DLN that may lead to math overflow.
To avoid this, try to lower the junction voltage by increasing RS (Series Resistance) or N (ideality factor) parameter values in the model.

WARNING -- Exceptionally high value of junction voltage (1.893e+01) or low value of thermal voltage (2.586e-02) is seen in device X_U10.DP that may lead to math overflow.
To avoid this, try to lower the junction voltage by increasing RS (Series Resistance) or N (ideality factor) parameter values in the model.

WARNING -- Exceptionally high value of junction voltage (1.909e+01) or low value of thermal voltage (2.586e-02) is seen in device X_U9.DP that may lead to math overflow.
To avoid this, try to lower the junction voltage by increasing RS (Series Resistance) or N (ideality factor) parameter values in the model.

WARNING -- Exceptionally high value of junction voltage (4.901e+01) or low value of thermal voltage (2.586e-02) is seen in device X_U10.DLN that may lead to math overflow.
To avoid this, try to lower the junction voltage by increasing RS (Series Resistance) or N (ideality factor) parameter values in the model.

WARNING -- Exceptionally high value of junction voltage (1.909e+01) or low value of thermal voltage (2.586e-02) is seen in device X_U10.DP that may lead to math overflow.
To avoid this, try to lower the junction voltage by increasing RS (Series Resistance) or N (ideality factor) parameter values in the model.

WARNING -- Exceptionally high value of junction voltage (1.925e+01) or low value of thermal voltage (2.586e-02) is seen in device X_U9.DP that may lead to math overflow.
To avoid this, try to lower the junction voltage by increasing RS (Series Resistance) or N (ideality factor) parameter values in the model.

WARNING -- Exceptionally high value of junction voltage (4.949e+01) or low value of thermal voltage (2.586e-02) is seen in device X_U10.DLN that may lead to math overflow.
To avoid this, try to lower the junction voltage by increasing RS (Series Resistance) or N (ideality factor) parameter values in the model.

WARNING -- Exceptionally high value of junction voltage (1.925e+01) or low value of thermal voltage (2.586e-02) is seen in device X_U10.DP that may lead to math overflow.
To avoid this, try to lower the junction voltage by increasing RS (Series Resistance) or N (ideality factor) parameter values in the model.

WARNING -- Exceptionally high value of junction voltage (1.940e+01) or low value of thermal voltage (2.586e-02) is seen in device X_U9.DP that may lead to math overflow.
To avoid this, try to lower the junction voltage by increasing RS (Series Resistance) or N (ideality factor) parameter values in the model.

WARNING -- Exceptionally high value of junction voltage (4.997e+01) or low value of thermal voltage (2.586e-02) is seen in device X_U10.DLN that may lead to math overflow.
To avoid this, try to lower the junction voltage by increasing RS (Series Resistance) or N (ideality factor) parameter values in the model.

WARNING -- Exceptionally high value of junction voltage (1.940e+01) or low value of thermal voltage (2.586e-02) is seen in device X_U10.DP that may lead to math overflow.
To avoid this, try to lower the junction voltage by increasing RS (Series Resistance) or N (ideality factor) parameter values in the model.

WARNING -- Exceptionally high value of junction voltage (1.956e+01) or low value of thermal voltage (2.586e-02) is seen in device X_U9.DP that may lead to math overflow.
To avoid this, try to lower the junction voltage by increasing RS (Series Resistance) or N (ideality factor) parameter values in the model.

WARNING -- Exceptionally high value of junction voltage (5.044e+01) or low value of thermal voltage (2.586e-02) is seen in device X_U10.DLN that may lead to math overflow.
To avoid this, try to lower the junction voltage by increasing RS (Series Resistance) or N (ideality factor) parameter values in the model.

WARNING -- Exceptionally high value of junction voltage (1.956e+01) or low value of thermal voltage (2.586e-02) is seen in device X_U10.DP that may lead to math overflow.
To avoid this, try to lower the junction voltage by increasing RS (Series Resistance) or N (ideality factor) parameter values in the model.

WARNING -- Exceptionally high value of junction voltage (1.971e+01) or low value of thermal voltage (2.586e-02) is seen in device X_U9.DP that may lead to math overflow.
To avoid this, try to lower the junction voltage by increasing RS (Series Resistance) or N (ideality factor) parameter values in the model.

WARNING -- Exceptionally high value of junction voltage (5.092e+01) or low value of thermal voltage (2.586e-02) is seen in device X_U10.DLN that may lead to math overflow.
To avoid this, try to lower the junction voltage by increasing RS (Series Resistance) or N (ideality factor) parameter values in the model.

WARNING -- Exceptionally high value of junction voltage (1.971e+01) or low value of thermal voltage (2.586e-02) is seen in device X_U10.DP that may lead to math overflow.
To avoid this, try to lower the junction voltage by increasing RS (Series Resistance) or N (ideality factor) parameter values in the model.

WARNING -- Exceptionally high value of junction voltage (1.987e+01) or low value of thermal voltage (2.586e-02) is seen in device X_U9.DP that may lead to math overflow.
To avoid this, try to lower the junction voltage by increasing RS (Series Resistance) or N (ideality factor) parameter values in the model.

WARNING -- Exceptionally high value of junction voltage (5.140e+01) or low value of thermal voltage (2.586e-02) is seen in device X_U10.DLN that may lead to math overflow.
To avoid this, try to lower the junction voltage by increasing RS (Series Resistance) or N (ideality factor) parameter values in the model.

WARNING -- Exceptionally high value of junction voltage (1.987e+01) or low value of thermal voltage (2.586e-02) is seen in device X_U10.DP that may lead to math overflow.
To avoid this, try to lower the junction voltage by increasing RS (Series Resistance) or N (ideality factor) parameter values in the model.

WARNING -- Exceptionally high value of junction voltage (2.002e+01) or low value of thermal voltage (2.586e-02) is seen in device X_U9.DP that may lead to math overflow.
To avoid this, try to lower the junction voltage by increasing RS (Series Resistance) or N (ideality factor) parameter values in the model.

WARNING -- Exceptionally high value of junction voltage (5.187e+01) or low value of thermal voltage (2.586e-02) is seen in device X_U10.DLN that may lead to math overflow.
To avoid this, try to lower the junction voltage by increasing RS (Series Resistance) or N (ideality factor) parameter values in the model.

WARNING -- Exceptionally high value of junction voltage (2.002e+01) or low value of thermal voltage (2.586e-02) is seen in device X_U10.DP that may lead to math overflow.
To avoid this, try to lower the junction voltage by increasing RS (Series Resistance) or N (ideality factor) parameter values in the model.

WARNING -- Exceptionally high value of junction voltage (2.018e+01) or low value of thermal voltage (2.586e-02) is seen in device X_U9.DP that may lead to math overflow.
To avoid this, try to lower the junction voltage by increasing RS (Series Resistance) or N (ideality factor) parameter values in the model.

WARNING -- Exceptionally high value of junction voltage (5.235e+01) or low value of thermal voltage (2.586e-02) is seen in device X_U10.DLN that may lead to math overflow.
To avoid this, try to lower the junction voltage by increasing RS (Series Resistance) or N (ideality factor) parameter values in the model.

WARNING -- Exceptionally high value of junction voltage (2.018e+01) or low value of thermal voltage (2.586e-02) is seen in device X_U10.DP that may lead to math overflow.
To avoid this, try to lower the junction voltage by increasing RS (Series Resistance) or N (ideality factor) parameter values in the model.

WARNING -- Exceptionally high value of junction voltage (2.033e+01) or low value of thermal voltage (2.586e-02) is seen in device X_U9.DP that may lead to math overflow.
To avoid this, try to lower the junction voltage by increasing RS (Series Resistance) or N (ideality factor) parameter values in the model.

WARNING -- Exceptionally high value of junction voltage (5.283e+01) or low value of thermal voltage (2.586e-02) is seen in device X_U10.DLN that may lead to math overflow.
To avoid this, try to lower the junction voltage by increasing RS (Series Resistance) or N (ideality factor) parameter values in the model.

WARNING -- Exceptionally high value of junction voltage (2.033e+01) or low value of thermal voltage (2.586e-02) is seen in device X_U10.DP that may lead to math overflow.
To avoid this, try to lower the junction voltage by increasing RS (Series Resistance) or N (ideality factor) parameter values in the model.

WARNING -- Exceptionally high value of junction voltage (2.048e+01) or low value of thermal voltage (2.586e-02) is seen in device X_U9.DP that may lead to math overflow.
To avoid this, try to lower the junction voltage by increasing RS (Series Resistance) or N (ideality factor) parameter values in the model.

WARNING -- Exceptionally high value of junction voltage (5.330e+01) or low value of thermal voltage (2.586e-02) is seen in device X_U10.DLN that may lead to math overflow.
To avoid this, try to lower the junction voltage by increasing RS (Series Resistance) or N (ideality factor) parameter values in the model.

WARNING -- Exceptionally high value of junction voltage (2.048e+01) or low value of thermal voltage (2.586e-02) is seen in device X_U10.DP that may lead to math overflow.
To avoid this, try to lower the junction voltage by increasing RS (Series Resistance) or N (ideality factor) parameter values in the model.

WARNING -- Exceptionally high value of junction voltage (2.064e+01) or low value of thermal voltage (2.586e-02) is seen in device X_U9.DP that may lead to math overflow.
To avoid this, try to lower the junction voltage by increasing RS (Series Resistance) or N (ideality factor) parameter values in the model.

WARNING -- Exceptionally high value of junction voltage (5.378e+01) or low value of thermal voltage (2.586e-02) is seen in device X_U10.DLN that may lead to math overflow.
To avoid this, try to lower the junction voltage by increasing RS (Series Resistance) or N (ideality factor) parameter values in the model.

WARNING -- Exceptionally high value of junction voltage (2.064e+01) or low value of thermal voltage (2.586e-02) is seen in device X_U10.DP that may lead to math overflow.
To avoid this, try to lower the junction voltage by increasing RS (Series Resistance) or N (ideality factor) parameter values in the model.

WARNING -- Exceptionally high value of junction voltage (2.079e+01) or low value of thermal voltage (2.586e-02) is seen in device X_U9.DP that may lead to math overflow.
To avoid this, try to lower the junction voltage by increasing RS (Series Resistance) or N (ideality factor) parameter values in the model.

WARNING -- Exceptionally high value of junction voltage (5.425e+01) or low value of thermal voltage (2.586e-02) is seen in device X_U10.DLN that may lead to math overflow.
To avoid this, try to lower the junction voltage by increasing RS (Series Resistance) or N (ideality factor) parameter values in the model.

WARNING -- Exceptionally high value of junction voltage (2.079e+01) or low value of thermal voltage (2.586e-02) is seen in device X_U10.DP that may lead to math overflow.
To avoid this, try to lower the junction voltage by increasing RS (Series Resistance) or N (ideality factor) parameter values in the model.

WARNING -- Exceptionally high value of junction voltage (2.094e+01) or low value of thermal voltage (2.586e-02) is seen in device X_U9.DP that may lead to math overflow.
To avoid this, try to lower the junction voltage by increasing RS (Series Resistance) or N (ideality factor) parameter values in the model.

WARNING -- Exceptionally high value of junction voltage (5.473e+01) or low value of thermal voltage (2.586e-02) is seen in device X_U10.DLN that may lead to math overflow.
To avoid this, try to lower the junction voltage by increasing RS (Series Resistance) or N (ideality factor) parameter values in the model.

WARNING -- Exceptionally high value of junction voltage (2.094e+01) or low value of thermal voltage (2.586e-02) is seen in device X_U10.DP that may lead to math overflow.
To avoid this, try to lower the junction voltage by increasing RS (Series Resistance) or N (ideality factor) parameter values in the model.

WARNING -- Exceptionally high value of junction voltage (2.109e+01) or low value of thermal voltage (2.586e-02) is seen in device X_U9.DP that may lead to math overflow.
To avoid this, try to lower the junction voltage by increasing RS (Series Resistance) or N (ideality factor) parameter values in the model.

WARNING -- Exceptionally high value of junction voltage (5.521e+01) or low value of thermal voltage (2.586e-02) is seen in device X_U10.DLN that may lead to math overflow.
To avoid this, try to lower the junction voltage by increasing RS (Series Resistance) or N (ideality factor) parameter values in the model.

WARNING -- Exceptionally high value of junction voltage (2.109e+01) or low value of thermal voltage (2.586e-02) is seen in device X_U10.DP that may lead to math overflow.
To avoid this, try to lower the junction voltage by increasing RS (Series Resistance) or N (ideality factor) parameter values in the model.

WARNING -- Exceptionally high value of junction voltage (2.124e+01) or low value of thermal voltage (2.586e-02) is seen in device X_U9.DP that may lead to math overflow.
To avoid this, try to lower the junction voltage by increasing RS (Series Resistance) or N (ideality factor) parameter values in the model.

WARNING -- Exceptionally high value of junction voltage (5.568e+01) or low value of thermal voltage (2.586e-02) is seen in device X_U10.DLN that may lead to math overflow.
To avoid this, try to lower the junction voltage by increasing RS (Series Resistance) or N (ideality factor) parameter values in the model.

WARNING -- Exceptionally high value of junction voltage (2.124e+01) or low value of thermal voltage (2.586e-02) is seen in device X_U10.DP that may lead to math overflow.
To avoid this, try to lower the junction voltage by increasing RS (Series Resistance) or N (ideality factor) parameter values in the model.

WARNING -- Exceptionally high value of junction voltage (2.139e+01) or low value of thermal voltage (2.586e-02) is seen in device X_U9.DP that may lead to math overflow.
To avoid this, try to lower the junction voltage by increasing RS (Series Resistance) or N (ideality factor) parameter values in the model.

WARNING -- Exceptionally high value of junction voltage (5.616e+01) or low value of thermal voltage (2.586e-02) is seen in device X_U10.DLN that may lead to math overflow.
To avoid this, try to lower the junction voltage by increasing RS (Series Resistance) or N (ideality factor) parameter values in the model.

WARNING -- Exceptionally high value of junction voltage (2.139e+01) or low value of thermal voltage (2.586e-02) is seen in device X_U10.DP that may lead to math overflow.
To avoid this, try to lower the junction voltage by increasing RS (Series Resistance) or N (ideality factor) parameter values in the model.

WARNING -- Exceptionally high value of junction voltage (2.155e+01) or low value of thermal voltage (2.586e-02) is seen in device X_U9.DP that may lead to math overflow.
To avoid this, try to lower the junction voltage by increasing RS (Series Resistance) or N (ideality factor) parameter values in the model.

WARNING -- Exceptionally high value of junction voltage (5.664e+01) or low value of thermal voltage (2.586e-02) is seen in device X_U10.DLN that may lead to math overflow.
To avoid this, try to lower the junction voltage by increasing RS (Series Resistance) or N (ideality factor) parameter values in the model.

WARNING -- Exceptionally high value of junction voltage (2.155e+01) or low value of thermal voltage (2.586e-02) is seen in device X_U10.DP that may lead to math overflow.
To avoid this, try to lower the junction voltage by increasing RS (Series Resistance) or N (ideality factor) parameter values in the model.

WARNING -- Exceptionally high value of junction voltage (2.170e+01) or low value of thermal voltage (2.586e-02) is seen in device X_U9.DP that may lead to math overflow.
To avoid this, try to lower the junction voltage by increasing RS (Series Resistance) or N (ideality factor) parameter values in the model.

WARNING -- Exceptionally high value of junction voltage (5.711e+01) or low value of thermal voltage (2.586e-02) is seen in device X_U10.DLN that may lead to math overflow.
To avoid this, try to lower the junction voltage by increasing RS (Series Resistance) or N (ideality factor) parameter values in the model.

WARNING -- Exceptionally high value of junction voltage (2.170e+01) or low value of thermal voltage (2.586e-02) is seen in device X_U10.DP that may lead to math overflow.
To avoid this, try to lower the junction voltage by increasing RS (Series Resistance) or N (ideality factor) parameter values in the model.

WARNING -- Exceptionally high value of junction voltage (2.184e+01) or low value of thermal voltage (2.586e-02) is seen in device X_U9.DP that may lead to math overflow.
To avoid this, try to lower the junction voltage by increasing RS (Series Resistance) or N (ideality factor) parameter values in the model.

WARNING -- Exceptionally high value of junction voltage (5.759e+01) or low value of thermal voltage (2.586e-02) is seen in device X_U10.DLN that may lead to math overflow.
To avoid this, try to lower the junction voltage by increasing RS (Series Resistance) or N (ideality factor) parameter values in the model.

WARNING -- Exceptionally high value of junction voltage (2.184e+01) or low value of thermal voltage (2.586e-02) is seen in device X_U10.DP that may lead to math overflow.
To avoid this, try to lower the junction voltage by increasing RS (Series Resistance) or N (ideality factor) parameter values in the model.

WARNING -- Exceptionally high value of junction voltage (2.199e+01) or low value of thermal voltage (2.586e-02) is seen in device X_U9.DP that may lead to math overflow.
To avoid this, try to lower the junction voltage by increasing RS (Series Resistance) or N (ideality factor) parameter values in the model.

WARNING -- Exceptionally high value of junction voltage (5.807e+01) or low value of thermal voltage (2.586e-02) is seen in device X_U10.DLN that may lead to math overflow.
To avoid this, try to lower the junction voltage by increasing RS (Series Resistance) or N (ideality factor) parameter values in the model.

WARNING -- Exceptionally high value of junction voltage (2.199e+01) or low value of thermal voltage (2.586e-02) is seen in device X_U10.DP that may lead to math overflow.
To avoid this, try to lower the junction voltage by increasing RS (Series Resistance) or N (ideality factor) parameter values in the model.

WARNING -- Exceptionally high value of junction voltage (2.214e+01) or low value of thermal voltage (2.586e-02) is seen in device X_U9.DP that may lead to math overflow.
To avoid this, try to lower the junction voltage by increasing RS (Series Resistance) or N (ideality factor) parameter values in the model.

WARNING -- Exceptionally high value of junction voltage (5.854e+01) or low value of thermal voltage (2.586e-02) is seen in device X_U10.DLN that may lead to math overflow.
To avoid this, try to lower the junction voltage by increasing RS (Series Resistance) or N (ideality factor) parameter values in the model.

WARNING -- Exceptionally high value of junction voltage (2.214e+01) or low value of thermal voltage (2.586e-02) is seen in device X_U10.DP that may lead to math overflow.
To avoid this, try to lower the junction voltage by increasing RS (Series Resistance) or N (ideality factor) parameter values in the model.

WARNING -- Exceptionally high value of junction voltage (2.229e+01) or low value of thermal voltage (2.586e-02) is seen in device X_U9.DP that may lead to math overflow.
To avoid this, try to lower the junction voltage by increasing RS (Series Resistance) or N (ideality factor) parameter values in the model.

WARNING -- Exceptionally high value of junction voltage (5.902e+01) or low value of thermal voltage (2.586e-02) is seen in device X_U10.DLN that may lead to math overflow.
To avoid this, try to lower the junction voltage by increasing RS (Series Resistance) or N (ideality factor) parameter values in the model.

WARNING -- Exceptionally high value of junction voltage (2.229e+01) or low value of thermal voltage (2.586e-02) is seen in device X_U10.DP that may lead to math overflow.
To avoid this, try to lower the junction voltage by increasing RS (Series Resistance) or N (ideality factor) parameter values in the model.

WARNING -- Exceptionally high value of junction voltage (2.244e+01) or low value of thermal voltage (2.586e-02) is seen in device X_U9.DP that may lead to math overflow.
To avoid this, try to lower the junction voltage by increasing RS (Series Resistance) or N (ideality factor) parameter values in the model.

WARNING -- Exceptionally high value of junction voltage (5.950e+01) or low value of thermal voltage (2.586e-02) is seen in device X_U10.DLN that may lead to math overflow.
To avoid this, try to lower the junction voltage by increasing RS (Series Resistance) or N (ideality factor) parameter values in the model.

WARNING -- Exceptionally high value of junction voltage (2.244e+01) or low value of thermal voltage (2.586e-02) is seen in device X_U10.DP that may lead to math overflow.
To avoid this, try to lower the junction voltage by increasing RS (Series Resistance) or N (ideality factor) parameter values in the model.

WARNING -- Exceptionally high value of junction voltage (2.258e+01) or low value of thermal voltage (2.586e-02) is seen in device X_U9.DP that may lead to math overflow.
To avoid this, try to lower the junction voltage by increasing RS (Series Resistance) or N (ideality factor) parameter values in the model.

WARNING -- Exceptionally high value of junction voltage (5.997e+01) or low value of thermal voltage (2.586e-02) is seen in device X_U10.DLN that may lead to math overflow.
To avoid this, try to lower the junction voltage by increasing RS (Series Resistance) or N (ideality factor) parameter values in the model.

WARNING -- Exceptionally high value of junction voltage (2.258e+01) or low value of thermal voltage (2.586e-02) is seen in device X_U10.DP that may lead to math overflow.
To avoid this, try to lower the junction voltage by increasing RS (Series Resistance) or N (ideality factor) parameter values in the model.

WARNING -- Exceptionally high value of junction voltage (2.273e+01) or low value of thermal voltage (2.586e-02) is seen in device X_U9.DP that may lead to math overflow.
To avoid this, try to lower the junction voltage by increasing RS (Series Resistance) or N (ideality factor) parameter values in the model.

WARNING -- Exceptionally high value of junction voltage (6.045e+01) or low value of thermal voltage (2.586e-02) is seen in device X_U10.DLN that may lead to math overflow.
To avoid this, try to lower the junction voltage by increasing RS (Series Resistance) or N (ideality factor) parameter values in the model.

WARNING -- Exceptionally high value of junction voltage (2.273e+01) or low value of thermal voltage (2.586e-02) is seen in device X_U10.DP that may lead to math overflow.
To avoid this, try to lower the junction voltage by increasing RS (Series Resistance) or N (ideality factor) parameter values in the model.

WARNING -- Exceptionally high value of junction voltage (2.288e+01) or low value of thermal voltage (2.586e-02) is seen in device X_U9.DP that may lead to math overflow.
To avoid this, try to lower the junction voltage by increasing RS (Series Resistance) or N (ideality factor) parameter values in the model.

WARNING -- Exceptionally high value of junction voltage (6.093e+01) or low value of thermal voltage (2.586e-02) is seen in device X_U10.DLN that may lead to math overflow.
To avoid this, try to lower the junction voltage by increasing RS (Series Resistance) or N (ideality factor) parameter values in the model.

WARNING -- Exceptionally high value of junction voltage (2.288e+01) or low value of thermal voltage (2.586e-02) is seen in device X_U10.DP that may lead to math overflow.
To avoid this, try to lower the junction voltage by increasing RS (Series Resistance) or N (ideality factor) parameter values in the model.

WARNING -- Exceptionally high value of junction voltage (2.302e+01) or low value of thermal voltage (2.586e-02) is seen in device X_U9.DP that may lead to math overflow.
To avoid this, try to lower the junction voltage by increasing RS (Series Resistance) or N (ideality factor) parameter values in the model.

WARNING -- Exceptionally high value of junction voltage (6.140e+01) or low value of thermal voltage (2.586e-02) is seen in device X_U10.DLN that may lead to math overflow.
To avoid this, try to lower the junction voltage by increasing RS (Series Resistance) or N (ideality factor) parameter values in the model.

WARNING -- Exceptionally high value of junction voltage (2.302e+01) or low value of thermal voltage (2.586e-02) is seen in device X_U10.DP that may lead to math overflow.
To avoid this, try to lower the junction voltage by increasing RS (Series Resistance) or N (ideality factor) parameter values in the model.

WARNING -- Exceptionally high value of junction voltage (2.317e+01) or low value of thermal voltage (2.586e-02) is seen in device X_U9.DP that may lead to math overflow.
To avoid this, try to lower the junction voltage by increasing RS (Series Resistance) or N (ideality factor) parameter values in the model.

WARNING -- Exceptionally high value of junction voltage (6.188e+01) or low value of thermal voltage (2.586e-02) is seen in device X_U10.DLN that may lead to math overflow.
To avoid this, try to lower the junction voltage by increasing RS (Series Resistance) or N (ideality factor) parameter values in the model.

WARNING -- Exceptionally high value of junction voltage (2.317e+01) or low value of thermal voltage (2.586e-02) is seen in device X_U10.DP that may lead to math overflow.
To avoid this, try to lower the junction voltage by increasing RS (Series Resistance) or N (ideality factor) parameter values in the model.

WARNING -- Exceptionally high value of junction voltage (2.331e+01) or low value of thermal voltage (2.586e-02) is seen in device X_U9.DP that may lead to math overflow.
To avoid this, try to lower the junction voltage by increasing RS (Series Resistance) or N (ideality factor) parameter values in the model.

WARNING -- Exceptionally high value of junction voltage (6.235e+01) or low value of thermal voltage (2.586e-02) is seen in device X_U10.DLN that may lead to math overflow.
To avoid this, try to lower the junction voltage by increasing RS (Series Resistance) or N (ideality factor) parameter values in the model.

WARNING -- Exceptionally high value of junction voltage (2.331e+01) or low value of thermal voltage (2.586e-02) is seen in device X_U10.DP that may lead to math overflow.
To avoid this, try to lower the junction voltage by increasing RS (Series Resistance) or N (ideality factor) parameter values in the model.

WARNING -- Exceptionally high value of junction voltage (2.345e+01) or low value of thermal voltage (2.586e-02) is seen in device X_U9.DP that may lead to math overflow.
To avoid this, try to lower the junction voltage by increasing RS (Series Resistance) or N (ideality factor) parameter values in the model.

WARNING -- Exceptionally high value of junction voltage (6.283e+01) or low value of thermal voltage (2.586e-02) is seen in device X_U10.DLN that may lead to math overflow.
To avoid this, try to lower the junction voltage by increasing RS (Series Resistance) or N (ideality factor) parameter values in the model.

WARNING -- Exceptionally high value of junction voltage (2.345e+01) or low value of thermal voltage (2.586e-02) is seen in device X_U10.DP that may lead to math overflow.
To avoid this, try to lower the junction voltage by increasing RS (Series Resistance) or N (ideality factor) parameter values in the model.

WARNING -- Exceptionally high value of junction voltage (2.360e+01) or low value of thermal voltage (2.586e-02) is seen in device X_U9.DP that may lead to math overflow.
To avoid this, try to lower the junction voltage by increasing RS (Series Resistance) or N (ideality factor) parameter values in the model.

WARNING -- Exceptionally high value of junction voltage (6.331e+01) or low value of thermal voltage (2.586e-02) is seen in device X_U10.DLN that may lead to math overflow.
To avoid this, try to lower the junction voltage by increasing RS (Series Resistance) or N (ideality factor) parameter values in the model.

WARNING -- Exceptionally high value of junction voltage (2.360e+01) or low value of thermal voltage (2.586e-02) is seen in device X_U10.DP that may lead to math overflow.
To avoid this, try to lower the junction voltage by increasing RS (Series Resistance) or N (ideality factor) parameter values in the model.

WARNING -- Exceptionally high value of junction voltage (2.374e+01) or low value of thermal voltage (2.586e-02) is seen in device X_U9.DP that may lead to math overflow.
To avoid this, try to lower the junction voltage by increasing RS (Series Resistance) or N (ideality factor) parameter values in the model.

WARNING -- Exceptionally high value of junction voltage (6.378e+01) or low value of thermal voltage (2.586e-02) is seen in device X_U10.DLN that may lead to math overflow.
To avoid this, try to lower the junction voltage by increasing RS (Series Resistance) or N (ideality factor) parameter values in the model.

WARNING -- Exceptionally high value of junction voltage (2.374e+01) or low value of thermal voltage (2.586e-02) is seen in device X_U10.DP that may lead to math overflow.
To avoid this, try to lower the junction voltage by increasing RS (Series Resistance) or N (ideality factor) parameter values in the model.

WARNING -- Exceptionally high value of junction voltage (2.388e+01) or low value of thermal voltage (2.586e-02) is seen in device X_U9.DP that may lead to math overflow.
To avoid this, try to lower the junction voltage by increasing RS (Series Resistance) or N (ideality factor) parameter values in the model.

WARNING -- Exceptionally high value of junction voltage (6.426e+01) or low value of thermal voltage (2.586e-02) is seen in device X_U10.DLN that may lead to math overflow.
To avoid this, try to lower the junction voltage by increasing RS (Series Resistance) or N (ideality factor) parameter values in the model.

WARNING -- Exceptionally high value of junction voltage (2.388e+01) or low value of thermal voltage (2.586e-02) is seen in device X_U10.DP that may lead to math overflow.
To avoid this, try to lower the junction voltage by increasing RS (Series Resistance) or N (ideality factor) parameter values in the model.

WARNING -- Exceptionally high value of junction voltage (2.402e+01) or low value of thermal voltage (2.586e-02) is seen in device X_U9.DP that may lead to math overflow.
To avoid this, try to lower the junction voltage by increasing RS (Series Resistance) or N (ideality factor) parameter values in the model.

WARNING -- Exceptionally high value of junction voltage (6.474e+01) or low value of thermal voltage (2.586e-02) is seen in device X_U10.DLN that may lead to math overflow.
To avoid this, try to lower the junction voltage by increasing RS (Series Resistance) or N (ideality factor) parameter values in the model.

WARNING -- Exceptionally high value of junction voltage (2.402e+01) or low value of thermal voltage (2.586e-02) is seen in device X_U10.DP that may lead to math overflow.
To avoid this, try to lower the junction voltage by increasing RS (Series Resistance) or N (ideality factor) parameter values in the model.

WARNING -- Exceptionally high value of junction voltage (2.417e+01) or low value of thermal voltage (2.586e-02) is seen in device X_U9.DP that may lead to math overflow.
To avoid this, try to lower the junction voltage by increasing RS (Series Resistance) or N (ideality factor) parameter values in the model.

WARNING -- Exceptionally high value of junction voltage (6.521e+01) or low value of thermal voltage (2.586e-02) is seen in device X_U10.DLN that may lead to math overflow.
To avoid this, try to lower the junction voltage by increasing RS (Series Resistance) or N (ideality factor) parameter values in the model.

WARNING -- Exceptionally high value of junction voltage (2.417e+01) or low value of thermal voltage (2.586e-02) is seen in device X_U10.DP that may lead to math overflow.
To avoid this, try to lower the junction voltage by increasing RS (Series Resistance) or N (ideality factor) parameter values in the model.

WARNING -- Exceptionally high value of junction voltage (2.431e+01) or low value of thermal voltage (2.586e-02) is seen in device X_U9.DP that may lead to math overflow.
To avoid this, try to lower the junction voltage by increasing RS (Series Resistance) or N (ideality factor) parameter values in the model.

WARNING -- Exceptionally high value of junction voltage (6.569e+01) or low value of thermal voltage (2.586e-02) is seen in device X_U10.DLN that may lead to math overflow.
To avoid this, try to lower the junction voltage by increasing RS (Series Resistance) or N (ideality factor) parameter values in the model.

WARNING -- Exceptionally high value of junction voltage (2.431e+01) or low value of thermal voltage (2.586e-02) is seen in device X_U10.DP that may lead to math overflow.
To avoid this, try to lower the junction voltage by increasing RS (Series Resistance) or N (ideality factor) parameter values in the model.

WARNING -- Exceptionally high value of junction voltage (2.445e+01) or low value of thermal voltage (2.586e-02) is seen in device X_U9.DP that may lead to math overflow.
To avoid this, try to lower the junction voltage by increasing RS (Series Resistance) or N (ideality factor) parameter values in the model.

WARNING -- Exceptionally high value of junction voltage (6.617e+01) or low value of thermal voltage (2.586e-02) is seen in device X_U10.DLN that may lead to math overflow.
To avoid this, try to lower the junction voltage by increasing RS (Series Resistance) or N (ideality factor) parameter values in the model.

WARNING -- Exceptionally high value of junction voltage (2.445e+01) or low value of thermal voltage (2.586e-02) is seen in device X_U10.DP that may lead to math overflow.
To avoid this, try to lower the junction voltage by increasing RS (Series Resistance) or N (ideality factor) parameter values in the model.

WARNING -- Exceptionally high value of junction voltage (2.458e+01) or low value of thermal voltage (2.586e-02) is seen in device X_U9.DP that may lead to math overflow.
To avoid this, try to lower the junction voltage by increasing RS (Series Resistance) or N (ideality factor) parameter values in the model.

WARNING -- Exceptionally high value of junction voltage (6.664e+01) or low value of thermal voltage (2.586e-02) is seen in device X_U10.DLN that may lead to math overflow.
To avoid this, try to lower the junction voltage by increasing RS (Series Resistance) or N (ideality factor) parameter values in the model.

WARNING -- Exceptionally high value of junction voltage (2.458e+01) or low value of thermal voltage (2.586e-02) is seen in device X_U10.DP that may lead to math overflow.
To avoid this, try to lower the junction voltage by increasing RS (Series Resistance) or N (ideality factor) parameter values in the model.

WARNING -- Exceptionally high value of junction voltage (2.472e+01) or low value of thermal voltage (2.586e-02) is seen in device X_U9.DP that may lead to math overflow.
To avoid this, try to lower the junction voltage by increasing RS (Series Resistance) or N (ideality factor) parameter values in the model.

WARNING -- Exceptionally high value of junction voltage (6.712e+01) or low value of thermal voltage (2.586e-02) is seen in device X_U10.DLN that may lead to math overflow.
To avoid this, try to lower the junction voltage by increasing RS (Series Resistance) or N (ideality factor) parameter values in the model.

WARNING -- Exceptionally high value of junction voltage (2.472e+01) or low value of thermal voltage (2.586e-02) is seen in device X_U10.DP that may lead to math overflow.
To avoid this, try to lower the junction voltage by increasing RS (Series Resistance) or N (ideality factor) parameter values in the model.

WARNING -- Exceptionally high value of junction voltage (2.486e+01) or low value of thermal voltage (2.586e-02) is seen in device X_U9.DP that may lead to math overflow.
To avoid this, try to lower the junction voltage by increasing RS (Series Resistance) or N (ideality factor) parameter values in the model.

WARNING -- Exceptionally high value of junction voltage (6.760e+01) or low value of thermal voltage (2.586e-02) is seen in device X_U10.DLN that may lead to math overflow.
To avoid this, try to lower the junction voltage by increasing RS (Series Resistance) or N (ideality factor) parameter values in the model.

WARNING -- Exceptionally high value of junction voltage (2.486e+01) or low value of thermal voltage (2.586e-02) is seen in device X_U10.DP that may lead to math overflow.
To avoid this, try to lower the junction voltage by increasing RS (Series Resistance) or N (ideality factor) parameter values in the model.

WARNING -- Exceptionally high value of junction voltage (2.500e+01) or low value of thermal voltage (2.586e-02) is seen in device X_U9.DP that may lead to math overflow.
To avoid this, try to lower the junction voltage by increasing RS (Series Resistance) or N (ideality factor) parameter values in the model.

WARNING -- Exceptionally high value of junction voltage (6.807e+01) or low value of thermal voltage (2.586e-02) is seen in device X_U10.DLN that may lead to math overflow.
To avoid this, try to lower the junction voltage by increasing RS (Series Resistance) or N (ideality factor) parameter values in the model.

WARNING -- Exceptionally high value of junction voltage (2.500e+01) or low value of thermal voltage (2.586e-02) is seen in device X_U10.DP that may lead to math overflow.
To avoid this, try to lower the junction voltage by increasing RS (Series Resistance) or N (ideality factor) parameter values in the model.

WARNING -- Exceptionally high value of junction voltage (2.513e+01) or low value of thermal voltage (2.586e-02) is seen in device X_U9.DP that may lead to math overflow.
To avoid this, try to lower the junction voltage by increasing RS (Series Resistance) or N (ideality factor) parameter values in the model.

WARNING -- Exceptionally high value of junction voltage (6.855e+01) or low value of thermal voltage (2.586e-02) is seen in device X_U10.DLN that may lead to math overflow.
To avoid this, try to lower the junction voltage by increasing RS (Series Resistance) or N (ideality factor) parameter values in the model.

WARNING -- Exceptionally high value of junction voltage (2.513e+01) or low value of thermal voltage (2.586e-02) is seen in device X_U10.DP that may lead to math overflow.
To avoid this, try to lower the junction voltage by increasing RS (Series Resistance) or N (ideality factor) parameter values in the model.

WARNING -- Exceptionally high value of junction voltage (2.527e+01) or low value of thermal voltage (2.586e-02) is seen in device X_U9.DP that may lead to math overflow.
To avoid this, try to lower the junction voltage by increasing RS (Series Resistance) or N (ideality factor) parameter values in the model.

WARNING -- Exceptionally high value of junction voltage (6.903e+01) or low value of thermal voltage (2.586e-02) is seen in device X_U10.DLN that may lead to math overflow.
To avoid this, try to lower the junction voltage by increasing RS (Series Resistance) or N (ideality factor) parameter values in the model.

WARNING -- Exceptionally high value of junction voltage (2.527e+01) or low value of thermal voltage (2.586e-02) is seen in device X_U10.DP that may lead to math overflow.
To avoid this, try to lower the junction voltage by increasing RS (Series Resistance) or N (ideality factor) parameter values in the model.

WARNING -- Exceptionally high value of junction voltage (2.540e+01) or low value of thermal voltage (2.586e-02) is seen in device X_U9.DP that may lead to math overflow.
To avoid this, try to lower the junction voltage by increasing RS (Series Resistance) or N (ideality factor) parameter values in the model.

WARNING -- Exceptionally high value of junction voltage (6.950e+01) or low value of thermal voltage (2.586e-02) is seen in device X_U10.DLN that may lead to math overflow.
To avoid this, try to lower the junction voltage by increasing RS (Series Resistance) or N (ideality factor) parameter values in the model.

WARNING -- Exceptionally high value of junction voltage (2.540e+01) or low value of thermal voltage (2.586e-02) is seen in device X_U10.DP that may lead to math overflow.
To avoid this, try to lower the junction voltage by increasing RS (Series Resistance) or N (ideality factor) parameter values in the model.

WARNING -- Exceptionally high value of junction voltage (2.554e+01) or low value of thermal voltage (2.586e-02) is seen in device X_U9.DP that may lead to math overflow.
To avoid this, try to lower the junction voltage by increasing RS (Series Resistance) or N (ideality factor) parameter values in the model.

WARNING -- Exceptionally high value of junction voltage (6.998e+01) or low value of thermal voltage (2.586e-02) is seen in device X_U10.DLN that may lead to math overflow.
To avoid this, try to lower the junction voltage by increasing RS (Series Resistance) or N (ideality factor) parameter values in the model.

WARNING -- Exceptionally high value of junction voltage (2.554e+01) or low value of thermal voltage (2.586e-02) is seen in device X_U10.DP that may lead to math overflow.
To avoid this, try to lower the junction voltage by increasing RS (Series Resistance) or N (ideality factor) parameter values in the model.

WARNING -- Exceptionally high value of junction voltage (2.567e+01) or low value of thermal voltage (2.586e-02) is seen in device X_U9.DP that may lead to math overflow.
To avoid this, try to lower the junction voltage by increasing RS (Series Resistance) or N (ideality factor) parameter values in the model.

WARNING -- Exceptionally high value of junction voltage (7.046e+01) or low value of thermal voltage (2.586e-02) is seen in device X_U10.DLN that may lead to math overflow.
To avoid this, try to lower the junction voltage by increasing RS (Series Resistance) or N (ideality factor) parameter values in the model.

WARNING -- Exceptionally high value of junction voltage (2.567e+01) or low value of thermal voltage (2.586e-02) is seen in device X_U10.DP that may lead to math overflow.
To avoid this, try to lower the junction voltage by increasing RS (Series Resistance) or N (ideality factor) parameter values in the model.

WARNING -- Exceptionally high value of junction voltage (2.580e+01) or low value of thermal voltage (2.586e-02) is seen in device X_U9.DP that may lead to math overflow.
To avoid this, try to lower the junction voltage by increasing RS (Series Resistance) or N (ideality factor) parameter values in the model.

WARNING -- Exceptionally high value of junction voltage (7.093e+01) or low value of thermal voltage (2.586e-02) is seen in device X_U10.DLN that may lead to math overflow.
To avoid this, try to lower the junction voltage by increasing RS (Series Resistance) or N (ideality factor) parameter values in the model.

WARNING -- Exceptionally high value of junction voltage (2.580e+01) or low value of thermal voltage (2.586e-02) is seen in device X_U10.DP that may lead to math overflow.
To avoid this, try to lower the junction voltage by increasing RS (Series Resistance) or N (ideality factor) parameter values in the model.

WARNING -- Exceptionally high value of junction voltage (2.594e+01) or low value of thermal voltage (2.586e-02) is seen in device X_U9.DP that may lead to math overflow.
To avoid this, try to lower the junction voltage by increasing RS (Series Resistance) or N (ideality factor) parameter values in the model.

WARNING -- Exceptionally high value of junction voltage (7.141e+01) or low value of thermal voltage (2.586e-02) is seen in device X_U10.DLN that may lead to math overflow.
To avoid this, try to lower the junction voltage by increasing RS (Series Resistance) or N (ideality factor) parameter values in the model.

WARNING -- Exceptionally high value of junction voltage (2.594e+01) or low value of thermal voltage (2.586e-02) is seen in device X_U10.DP that may lead to math overflow.
To avoid this, try to lower the junction voltage by increasing RS (Series Resistance) or N (ideality factor) parameter values in the model.

WARNING -- Exceptionally high value of junction voltage (2.607e+01) or low value of thermal voltage (2.586e-02) is seen in device X_U9.DP that may lead to math overflow.
To avoid this, try to lower the junction voltage by increasing RS (Series Resistance) or N (ideality factor) parameter values in the model.

WARNING -- Exceptionally high value of junction voltage (7.189e+01) or low value of thermal voltage (2.586e-02) is seen in device X_U10.DLN that may lead to math overflow.
To avoid this, try to lower the junction voltage by increasing RS (Series Resistance) or N (ideality factor) parameter values in the model.

WARNING -- Exceptionally high value of junction voltage (2.607e+01) or low value of thermal voltage (2.586e-02) is seen in device X_U10.DP that may lead to math overflow.
To avoid this, try to lower the junction voltage by increasing RS (Series Resistance) or N (ideality factor) parameter values in the model.

WARNING -- Exceptionally high value of junction voltage (2.620e+01) or low value of thermal voltage (2.586e-02) is seen in device X_U9.DP that may lead to math overflow.
To avoid this, try to lower the junction voltage by increasing RS (Series Resistance) or N (ideality factor) parameter values in the model.

WARNING -- Exceptionally high value of junction voltage (7.236e+01) or low value of thermal voltage (2.586e-02) is seen in device X_U10.DLN that may lead to math overflow.
To avoid this, try to lower the junction voltage by increasing RS (Series Resistance) or N (ideality factor) parameter values in the model.

WARNING -- Exceptionally high value of junction voltage (2.620e+01) or low value of thermal voltage (2.586e-02) is seen in device X_U10.DP that may lead to math overflow.
To avoid this, try to lower the junction voltage by increasing RS (Series Resistance) or N (ideality factor) parameter values in the model.

WARNING -- Exceptionally high value of junction voltage (2.633e+01) or low value of thermal voltage (2.586e-02) is seen in device X_U9.DP that may lead to math overflow.
To avoid this, try to lower the junction voltage by increasing RS (Series Resistance) or N (ideality factor) parameter values in the model.

WARNING -- Exceptionally high value of junction voltage (7.284e+01) or low value of thermal voltage (2.586e-02) is seen in device X_U10.DLN that may lead to math overflow.
To avoid this, try to lower the junction voltage by increasing RS (Series Resistance) or N (ideality factor) parameter values in the model.

WARNING -- Exceptionally high value of junction voltage (2.633e+01) or low value of thermal voltage (2.586e-02) is seen in device X_U10.DP that may lead to math overflow.
To avoid this, try to lower the junction voltage by increasing RS (Series Resistance) or N (ideality factor) parameter values in the model.

WARNING -- Exceptionally high value of junction voltage (2.645e+01) or low value of thermal voltage (2.586e-02) is seen in device X_U9.DP that may lead to math overflow.
To avoid this, try to lower the junction voltage by increasing RS (Series Resistance) or N (ideality factor) parameter values in the model.

WARNING -- Exceptionally high value of junction voltage (7.332e+01) or low value of thermal voltage (2.586e-02) is seen in device X_U10.DLN that may lead to math overflow.
To avoid this, try to lower the junction voltage by increasing RS (Series Resistance) or N (ideality factor) parameter values in the model.

WARNING -- Exceptionally high value of junction voltage (2.645e+01) or low value of thermal voltage (2.586e-02) is seen in device X_U10.DP that may lead to math overflow.
To avoid this, try to lower the junction voltage by increasing RS (Series Resistance) or N (ideality factor) parameter values in the model.

WARNING -- Exceptionally high value of junction voltage (2.658e+01) or low value of thermal voltage (2.586e-02) is seen in device X_U9.DP that may lead to math overflow.
To avoid this, try to lower the junction voltage by increasing RS (Series Resistance) or N (ideality factor) parameter values in the model.

WARNING -- Exceptionally high value of junction voltage (7.380e+01) or low value of thermal voltage (2.586e-02) is seen in device X_U10.DLN that may lead to math overflow.
To avoid this, try to lower the junction voltage by increasing RS (Series Resistance) or N (ideality factor) parameter values in the model.

WARNING -- Exceptionally high value of junction voltage (2.658e+01) or low value of thermal voltage (2.586e-02) is seen in device X_U10.DP that may lead to math overflow.
To avoid this, try to lower the junction voltage by increasing RS (Series Resistance) or N (ideality factor) parameter values in the model.

WARNING -- Exceptionally high value of junction voltage (2.671e+01) or low value of thermal voltage (2.586e-02) is seen in device X_U9.DP that may lead to math overflow.
To avoid this, try to lower the junction voltage by increasing RS (Series Resistance) or N (ideality factor) parameter values in the model.

WARNING -- Exceptionally high value of junction voltage (7.427e+01) or low value of thermal voltage (2.586e-02) is seen in device X_U10.DLN that may lead to math overflow.
To avoid this, try to lower the junction voltage by increasing RS (Series Resistance) or N (ideality factor) parameter values in the model.

WARNING -- Exceptionally high value of junction voltage (2.671e+01) or low value of thermal voltage (2.586e-02) is seen in device X_U10.DP that may lead to math overflow.
To avoid this, try to lower the junction voltage by increasing RS (Series Resistance) or N (ideality factor) parameter values in the model.

WARNING -- Exceptionally high value of junction voltage (2.683e+01) or low value of thermal voltage (2.586e-02) is seen in device X_U9.DP that may lead to math overflow.
To avoid this, try to lower the junction voltage by increasing RS (Series Resistance) or N (ideality factor) parameter values in the model.

WARNING -- Exceptionally high value of junction voltage (7.475e+01) or low value of thermal voltage (2.586e-02) is seen in device X_U10.DLN that may lead to math overflow.
To avoid this, try to lower the junction voltage by increasing RS (Series Resistance) or N (ideality factor) parameter values in the model.

WARNING -- Exceptionally high value of junction voltage (2.683e+01) or low value of thermal voltage (2.586e-02) is seen in device X_U10.DP that may lead to math overflow.
To avoid this, try to lower the junction voltage by increasing RS (Series Resistance) or N (ideality factor) parameter values in the model.

WARNING -- Exceptionally high value of junction voltage (2.696e+01) or low value of thermal voltage (2.586e-02) is seen in device X_U9.DP that may lead to math overflow.
To avoid this, try to lower the junction voltage by increasing RS (Series Resistance) or N (ideality factor) parameter values in the model.

WARNING -- Exceptionally high value of junction voltage (7.523e+01) or low value of thermal voltage (2.586e-02) is seen in device X_U10.DLN that may lead to math overflow.
To avoid this, try to lower the junction voltage by increasing RS (Series Resistance) or N (ideality factor) parameter values in the model.

[...]
To avoid this, try to lower the junction voltage by increasing RS (Series Resistance) or N (ideality factor) parameter values in the model.

WARNING -- Exceptionally high value of junction voltage (5.456e+02) or low value of thermal voltage (2.586e-02) is seen in device X_U10.DLN that may lead to math overflow.
To avoid this, try to lower the junction voltage by increasing RS (Series Resistance) or N (ideality factor) parameter values in the model.

WARNING -- Exceptionally high value of junction voltage (5.461e+02) or low value of thermal voltage (2.586e-02) is seen in device X_U10.DLN that may lead to math overflow.
To avoid this, try to lower the junction voltage by increasing RS (Series Resistance) or N (ideality factor) parameter values in the model.

WARNING -- Exceptionally high value of junction voltage (5.466e+02) or low value of thermal voltage (2.586e-02) is seen in device X_U10.DLN that may lead to math overflow.
To avoid this, try to lower the junction voltage by increasing RS (Series Resistance) or N (ideality factor) parameter values in the model.

WARNING -- Exceptionally high value of junction voltage (5.470e+02) or low value of thermal voltage (2.586e-02) is seen in device X_U10.DLN that may lead to math overflow.
To avoid this, try to lower the junction voltage by increasing RS (Series Resistance) or N (ideality factor) parameter values in the model.

WARNING -- Exceptionally high value of junction voltage (5.475e+02) or low value of thermal voltage (2.586e-02) is seen in device X_U10.DLN that may lead to math overflow.
To avoid this, try to lower the junction voltage by increasing RS (Series Resistance) or N (ideality factor) parameter values in the model.

WARNING -- Exceptionally high value of junction voltage (5.480e+02) or low value of thermal voltage (2.586e-02) is seen in device X_U10.DLN that may lead to math overflow.
To avoid this, try to lower the junction voltage by increasing RS (Series Resistance) or N (ideality factor) parameter values in the model.

WARNING -- Exceptionally high value of junction voltage (5.485e+02) or low value of thermal voltage (2.586e-02) is seen in device X_U10.DLN that may lead to math overflow.
To avoid this, try to lower the junction voltage by increasing RS (Series Resistance) or N (ideality factor) parameter values in the model.

WARNING -- Exceptionally high value of junction voltage (5.490e+02) or low value of thermal voltage (2.586e-02) is seen in device X_U10.DLN that may lead to math overflow.
To avoid this, try to lower the junction voltage by increasing RS (Series Resistance) or N (ideality factor) parameter values in the model.

WARNING -- Exceptionally high value of junction voltage (5.494e+02) or low value of thermal voltage (2.586e-02) is seen in device X_U10.DLN that may lead to math overflow.
To avoid this, try to lower the junction voltage by increasing RS (Series Resistance) or N (ideality factor) parameter values in the model.

WARNING -- Exceptionally high value of junction voltage (5.499e+02) or low value of thermal voltage (2.586e-02) is seen in device X_U10.DLN that may lead to math overflow.
To avoid this, try to lower the junction voltage by increasing RS (Series Resistance) or N (ideality factor) parameter values in the model.

WARNING -- Exceptionally high value of junction voltage (5.504e+02) or low value of thermal voltage (2.586e-02) is seen in device X_U10.DLN that may lead to math overflow.
To avoid this, try to lower the junction voltage by increasing RS (Series Resistance) or N (ideality factor) parameter values in the model.

WARNING -- Exceptionally high value of junction voltage (5.509e+02) or low value of thermal voltage (2.586e-02) is seen in device X_U10.DLN that may lead to math overflow.
To avoid this, try to lower the junction voltage by increasing RS (Series Resistance) or N (ideality factor) parameter values in the model.

WARNING -- Exceptionally high value of junction voltage (5.513e+02) or low value of thermal voltage (2.586e-02) is seen in device X_U10.DLN that may lead to math overflow.
To avoid this, try to lower the junction voltage by increasing RS (Series Resistance) or N (ideality factor) parameter values in the model.

WARNING -- Exceptionally high value of junction voltage (5.518e+02) or low value of thermal voltage (2.586e-02) is seen in device X_U10.DLN that may lead to math overflow.
To avoid this, try to lower the junction voltage by increasing RS (Series Resistance) or N (ideality factor) parameter values in the model.

WARNING -- Exceptionally high value of junction voltage (5.523e+02) or low value of thermal voltage (2.586e-02) is seen in device X_U10.DLN that may lead to math overflow.
To avoid this, try to lower the junction voltage by increasing RS (Series Resistance) or N (ideality factor) parameter values in the model.

WARNING -- Exceptionally high value of junction voltage (5.528e+02) or low value of thermal voltage (2.586e-02) is seen in device X_U10.DLN that may lead to math overflow.
To avoid this, try to lower the junction voltage by increasing RS (Series Resistance) or N (ideality factor) parameter values in the model.

WARNING -- Exceptionally high value of junction voltage (5.532e+02) or low value of thermal voltage (2.586e-02) is seen in device X_U10.DLN that may lead to math overflow.
To avoid this, try to lower the junction voltage by increasing RS (Series Resistance) or N (ideality factor) parameter values in the model.

WARNING -- Exceptionally high value of junction voltage (5.537e+02) or low value of thermal voltage (2.586e-02) is seen in device X_U10.DLN that may lead to math overflow.
To avoid this, try to lower the junction voltage by increasing RS (Series Resistance) or N (ideality factor) parameter values in the model.

WARNING -- Exceptionally high value of junction voltage (5.542e+02) or low value of thermal voltage (2.586e-02) is seen in device X_U10.DLN that may lead to math overflow.
To avoid this, try to lower the junction voltage by increasing RS (Series Resistance) or N (ideality factor) parameter values in the model.

WARNING -- Exceptionally high value of junction voltage (5.547e+02) or low value of thermal voltage (2.586e-02) is seen in device X_U10.DLN that may lead to math overflow.
To avoid this, try to lower the junction voltage by increasing RS (Series Resistance) or N (ideality factor) parameter values in the model.

WARNING -- Exceptionally high value of junction voltage (5.552e+02) or low value of thermal voltage (2.586e-02) is seen in device X_U10.DLN that may lead to math overflow.
To avoid this, try to lower the junction voltage by increasing RS (Series Resistance) or N (ideality factor) parameter values in the model.

WARNING -- Exceptionally high value of junction voltage (5.556e+02) or low value of thermal voltage (2.586e-02) is seen in device X_U10.DLN that may lead to math overflow.
To avoid this, try to lower the junction voltage by increasing RS (Series Resistance) or N (ideality factor) parameter values in the model.

WARNING -- Exceptionally high value of junction voltage (5.561e+02) or low value of thermal voltage (2.586e-02) is seen in device X_U10.DLN that may lead to math overflow.
To avoid this, try to lower the junction voltage by increasing RS (Series Resistance) or N (ideality factor) parameter values in the model.

WARNING -- Exceptionally high value of junction voltage (5.566e+02) or low value of thermal voltage (2.586e-02) is seen in device X_U10.DLN that may lead to math overflow.
To avoid this, try to lower the junction voltage by increasing RS (Series Resistance) or N (ideality factor) parameter values in the model.

WARNING -- Exceptionally high value of junction voltage (5.571e+02) or low value of thermal voltage (2.586e-02) is seen in device X_U10.DLN that may lead to math overflow.
To avoid this, try to lower the junction voltage by increasing RS (Series Resistance) or N (ideality factor) parameter values in the model.

WARNING -- Exceptionally high value of junction voltage (5.575e+02) or low value of thermal voltage (2.586e-02) is seen in device X_U10.DLN that may lead to math overflow.
To avoid this, try to lower the junction voltage by increasing RS (Series Resistance) or N (ideality factor) parameter values in the model.

WARNING -- Exceptionally high value of junction voltage (5.580e+02) or low value of thermal voltage (2.586e-02) is seen in device X_U10.DLN that may lead to math overflow.
To avoid this, try to lower the junction voltage by increasing RS (Series Resistance) or N (ideality factor) parameter values in the model.

WARNING -- Exceptionally high value of junction voltage (5.585e+02) or low value of thermal voltage (2.586e-02) is seen in device X_U10.DLN that may lead to math overflow.
To avoid this, try to lower the junction voltage by increasing RS (Series Resistance) or N (ideality factor) parameter values in the model.

WARNING -- Exceptionally high value of junction voltage (5.590e+02) or low value of thermal voltage (2.586e-02) is seen in device X_U10.DLN that may lead to math overflow.
To avoid this, try to lower the junction voltage by increasing RS (Series Resistance) or N (ideality factor) parameter values in the model.

WARNING -- Exceptionally high value of junction voltage (5.595e+02) or low value of thermal voltage (2.586e-02) is seen in device X_U10.DLN that may lead to math overflow.
To avoid this, try to lower the junction voltage by increasing RS (Series Resistance) or N (ideality factor) parameter values in the model.

WARNING -- Exceptionally high value of junction voltage (5.599e+02) or low value of thermal voltage (2.586e-02) is seen in device X_U10.DLN that may lead to math overflow.
To avoid this, try to lower the junction voltage by increasing RS (Series Resistance) or N (ideality factor) parameter values in the model.

WARNING -- Exceptionally high value of junction voltage (5.604e+02) or low value of thermal voltage (2.586e-02) is seen in device X_U10.DLN that may lead to math overflow.
To avoid this, try to lower the junction voltage by increasing RS (Series Resistance) or N (ideality factor) parameter values in the model.

WARNING -- Exceptionally high value of junction voltage (5.609e+02) or low value of thermal voltage (2.586e-02) is seen in device X_U10.DLN that may lead to math overflow.
To avoid this, try to lower the junction voltage by increasing RS (Series Resistance) or N (ideality factor) parameter values in the model.

WARNING -- Exceptionally high value of junction voltage (5.614e+02) or low value of thermal voltage (2.586e-02) is seen in device X_U10.DLN that may lead to math overflow.
To avoid this, try to lower the junction voltage by increasing RS (Series Resistance) or N (ideality factor) parameter values in the model.

WARNING -- Exceptionally high value of junction voltage (5.618e+02) or low value of thermal voltage (2.586e-02) is seen in device X_U10.DLN that may lead to math overflow.
To avoid this, try to lower the junction voltage by increasing RS (Series Resistance) or N (ideality factor) parameter values in the model.

WARNING -- Exceptionally high value of junction voltage (5.623e+02) or low value of thermal voltage (2.586e-02) is seen in device X_U10.DLN that may lead to math overflow.
To avoid this, try to lower the junction voltage by increasing RS (Series Resistance) or N (ideality factor) parameter values in the model.

WARNING -- Exceptionally high value of junction voltage (5.628e+02) or low value of thermal voltage (2.586e-02) is seen in device X_U10.DLN that may lead to math overflow.
To avoid this, try to lower the junction voltage by increasing RS (Series Resistance) or N (ideality factor) parameter values in the model.

WARNING -- Exceptionally high value of junction voltage (5.633e+02) or low value of thermal voltage (2.586e-02) is seen in device X_U10.DLN that may lead to math overflow.
To avoid this, try to lower the junction voltage by increasing RS (Series Resistance) or N (ideality factor) parameter values in the model.

WARNING -- Exceptionally high value of junction voltage (5.638e+02) or low value of thermal voltage (2.586e-02) is seen in device X_U10.DLN that may lead to math overflow.
To avoid this, try to lower the junction voltage by increasing RS (Series Resistance) or N (ideality factor) parameter values in the model.

WARNING -- Exceptionally high value of junction voltage (5.642e+02) or low value of thermal voltage (2.586e-02) is seen in device X_U10.DLN that may lead to math overflow.
To avoid this, try to lower the junction voltage by increasing RS (Series Resistance) or N (ideality factor) parameter values in the model.

WARNING -- Exceptionally high value of junction voltage (5.647e+02) or low value of thermal voltage (2.586e-02) is seen in device X_U10.DLN that may lead to math overflow.
To avoid this, try to lower the junction voltage by increasing RS (Series Resistance) or N (ideality factor) parameter values in the model.

WARNING -- Exceptionally high value of junction voltage (5.652e+02) or low value of thermal voltage (2.586e-02) is seen in device X_U10.DLN that may lead to math overflow.
To avoid this, try to lower the junction voltage by increasing RS (Series Resistance) or N (ideality factor) parameter values in the model.

WARNING -- Exceptionally high value of junction voltage (5.657e+02) or low value of thermal voltage (2.586e-02) is seen in device X_U10.DLN that may lead to math overflow.
To avoid this, try to lower the junction voltage by increasing RS (Series Resistance) or N (ideality factor) parameter values in the model.

WARNING -- Exceptionally high value of junction voltage (5.661e+02) or low value of thermal voltage (2.586e-02) is seen in device X_U10.DLN that may lead to math overflow.
To avoid this, try to lower the junction voltage by increasing RS (Series Resistance) or N (ideality factor) parameter values in the model.

WARNING -- Exceptionally high value of junction voltage (5.666e+02) or low value of thermal voltage (2.586e-02) is seen in device X_U10.DLN that may lead to math overflow.
To avoid this, try to lower the junction voltage by increasing RS (Series Resistance) or N (ideality factor) parameter values in the model.

WARNING -- Exceptionally high value of junction voltage (5.671e+02) or low value of thermal voltage (2.586e-02) is seen in device X_U10.DLN that may lead to math overflow.
To avoid this, try to lower the junction voltage by increasing RS (Series Resistance) or N (ideality factor) parameter values in the model.

WARNING -- Exceptionally high value of junction voltage (5.676e+02) or low value of thermal voltage (2.586e-02) is seen in device X_U10.DLN that may lead to math overflow.
To avoid this, try to lower the junction voltage by increasing RS (Series Resistance) or N (ideality factor) parameter values in the model.

WARNING -- Exceptionally high value of junction voltage (5.681e+02) or low value of thermal voltage (2.586e-02) is seen in device X_U10.DLN that may lead to math overflow.
To avoid this, try to lower the junction voltage by increasing RS (Series Resistance) or N (ideality factor) parameter values in the model.

WARNING -- Exceptionally high value of junction voltage (5.685e+02) or low value of thermal voltage (2.586e-02) is seen in device X_U10.DLN that may lead to math overflow.
To avoid this, try to lower the junction voltage by increasing RS (Series Resistance) or N (ideality factor) parameter values in the model.

WARNING -- Exceptionally high value of junction voltage (5.690e+02) or low value of thermal voltage (2.586e-02) is seen in device X_U10.DLN that may lead to math overflow.
To avoid this, try to lower the junction voltage by increasing RS (Series Resistance) or N (ideality factor) parameter values in the model.

WARNING -- Exceptionally high value of junction voltage (5.695e+02) or low value of thermal voltage (2.586e-02) is seen in device X_U10.DLN that may lead to math overflow.
To avoid this, try to lower the junction voltage by increasing RS (Series Resistance) or N (ideality factor) parameter values in the model.

WARNING -- Exceptionally high value of junction voltage (5.700e+02) or low value of thermal voltage (2.586e-02) is seen in device X_U10.DLN that may lead to math overflow.
To avoid this, try to lower the junction voltage by increasing RS (Series Resistance) or N (ideality factor) parameter values in the model.

WARNING -- Exceptionally high value of junction voltage (5.704e+02) or low value of thermal voltage (2.586e-02) is seen in device X_U10.DLN that may lead to math overflow.
To avoid this, try to lower the junction voltage by increasing RS (Series Resistance) or N (ideality factor) parameter values in the model.

Starting pseudo-transient algorithm.

INFO(ORPSIM-16594): To improve Pseudotransient Convergence and Performance, set following options to relax stabilization criteria for capacitor currents and inductor voltages: PTRANABSTOL=1e-5, PTRANVNTOL=1e-4

ERROR(ORPSIM-16550): Floating point computation failed during matrix solution. Possible solutions: 1)Ensure that all device parameters are in valid range. 2)Try using .options LIMIT

INTERNAL ERROR -- Overflow, Multiply(-3.32109e+200, 2.35701e+108)

ABORTING SIMULATION
**** 04/23/25 16:11:59 **** PSpice 23.1.0 (30 January 2024) *** ID# 0 ********

 ** Profile: "SCHEMATIC1-ACsim"  [ c:\users\35191\onedrive - instituto superior de engenharia do porto\desktop\pesta\pspice\audioin\a


 ****     JOB STATISTICS SUMMARY


******************************************************************************



Node counts:
  Top level (NUNODS)                =          22
  External (NCNODS)                 =          67
  Total (NUMNOD)                    =          67

Total device count (NUMEL)          =         119
  Capacitors (C)                    =          13
  Diodes (D)                        =          15
  VCVS (E)                          =           6
  CCCS (F)                          =           3
  VCCS (G)                          =           6
  CCVS (H)                          =           3
  Current Sources (I)               =           3
  BJTs (Q)                          =           6
  Resistors (R)                     =          41
  Voltage Sources (V)               =          23

Number of subcircuits (X)           =           3

Matrix statistics:
  Matrix size (NSTOP)               =          99
  Initial no. elements (NTTAR)      =         354
  No. elements w/ fillin (NTTBR)    =         602
  No. fillins (IFILL)               =         248
  No. overflows (NTTOV)             =         280
  No. LU operations (IOPS)          =        1580
  Percent sparsity (PERSPA)         =      93.858

Analysis statistics:
  No. total time points (NUMTTP)    =           0
  No. rejected time points (NUMRTP) =           0
  No. iterations (NUMNIT)           =           0

Load Threads                        =           4

Runtime statistics:                       Seconds      Iterations   Stopped At
  Matrix load                       =         .03
  Matrix solution                   =        0.00               4
  Readin                            =         .24
  General setup                     =        0.00
  CMI setup                     =        0.00
  Setup                             =        0.00
  DC sweep                          =        0.00               0
  Bias point                        =        0.00               0
  Default algorithm                 =        -.02           -1050
  GMIN stepping                     =         .02            1050     100.00m
  AC and noise                      =        0.00               0
  Total transient analysis          =        0.00
  Output                            =        0.00
  Overhead                          =         .06
  Total job time (using Solver 1)   =         .27
