
**** 06/26/25 19:23:30 **** PSpice 23.1.0 (30 January 2024) *** ID# 0 ********

 ** Profile: "SCHEMATIC1-ACsim"  [ c:\projeto_final\repositório\esquemático_simulações_pspice\audioin-PSpiceFiles\SCHEMATIC1\ACsim.si


 ****     CIRCUIT DESCRIPTION


******************************************************************************




** Creating circuit file "ACsim.cir" 
** WARNING: THIS AUTOMATICALLY GENERATED FILE MAY BE OVERWRITTEN BY SUBSEQUENT SIMULATIONS

*Libraries: 
* Profile Libraries :
* Local Libraries :
* From [PSPICE NETLIST] section of C:\cds_spb_home\cdssetup\OrCAD_PSpiceTIPSpice_Install\23.1.0\PSpice.ini file:
.lib "nom_pspti.lib" 
.lib "nom.lib" 

*Analysis directives: 
.TRAN  0 2ms 0 
.OPTIONS ADVCONV
.OPTIONS FILEMODELSEARCH
.PROBE64 V(alias(*)) I(alias(*)) W(alias(*)) D(alias(*)) NOISE(alias(*)) 
.INC "..\SCHEMATIC1.net" 



**** INCLUDING SCHEMATIC1.net ****
* source AUDIOIN
.EXTERNAL OUTPUT 5V
.EXTERNAL OUTPUT VCC+
.EXTERNAL OUTPUT VCC-
.EXTERNAL OUTPUT VREF
.EXTERNAL OUTPUT Buffer_Out
.EXTERNAL OUTPUT CS_OUT
.EXTERNAL OUTPUT V8
.EXTERNAL OUTPUT ALIAS_OUT
.EXTERNAL OUTPUT 3.3
C_C10         0 N02426  2.2n  TC=0,0 
R_R9         N02426 N02884  10k TC=0,0 
R_R7         N02282 N02330  10k TC=0,0 
C_C9         0 N02452  1n  TC=0,0 
C_C6         N02282 N02124  3.3n  TC=0,0 
R_R10         N02884 N02452  10k TC=0,0 
C_C7         N02884 N02146  3.3n  TC=0,0 
C_C8         0 N02330  1.5n  TC=0,0 
E_U3         N02124 0 VALUE {LIMIT(V(N02330,N02124)*1E6,-15V,+15V)}
E_U4         N02146 0 VALUE {LIMIT(V(N02452,N02146)*1E6,-15V,+15V)}
R_R6         N02146 N02282  10k TC=0,0 
R_R8         CS_OUT N02426  10k TC=0,0 
E_U5         ALIAS_OUT 0 VALUE {LIMIT(V(N03986,ALIAS_OUT)*1E6,-15V,+15V)}
R_R11         N02124 N03928  10k TC=0,0 
C_C11         N03928 ALIAS_OUT  10n  TC=0,0 
C_C12         0 N03986  0.5n  TC=0,0 
R_R12         N03928 N03986  10k TC=0,0 
R_R16         N05881 N05911  10k TC=0,0 
R_R17         N05911 CS_OUT  10k TC=0,0 
V_V4         3.3 0 3.3
R_R15         BUFFER_OUT N05881  10k TC=0,0 
X_U8         N07263 BUFFER_OUT VCC+ VCC- BUFFER_OUT UA741
V_V5         VCC+ 0 15
V_V6         VCC- 0 -15
R_R18         N07263 5V  10k TC=0,0 
R_R19         0 N07263  10k TC=0,0 
X_U9         0 BUFFER_OUT VCC+ VCC- N05881 UA741
X_U10         0 N05911 VCC+ VCC- CS_OUT UA741
C_C13         N09132 N09186  1u  
R_R20         0 N09186  10k TC=0,0 
X_U11         N09186 BUFFER_OUT VCC+ VCC- BUFFER_OUT UA741
X_U12         ALIAS_OUT N10926 VCC+ VCC- N10876 UA741
D_D1         N10876 N10920 Dbreak 
R_R21         N10926 N10920  470 TC=0,0 
X_D2         0 N10926 Zener_parameterized PARAMS: VZT=3.3 RSF=100m
V_V8         V8 0 5
C_C14         VCC+ 0  0.1u  
C_C15         VCC- 0  0.1u  
V_V9         N09132 0  AC 0
+SIN 1.65 1.65 1000 0 0 0

**** RESUMING ACsim.cir ****
.END

WARNING(ORPSIM-15223): Library file C:\cds_spb_home\cdssetup\pspTILibDir\nom_pspti.lib has changed since index file nom_pspti.ind was created.

WARNING(ORPSIM-15227): The timestamp changed from Wed Jun 11 22:47:58 2025 to Thu Jun 26 19:20:57 2025.

INFO(ORPSIM-15422): Making new index file nom_pspti.ind for library file nom_pspti.lib.
b2e4e117ac3ae9d81b0a9590344b9f0be3a13d734fc0d5d3bc0ae1622ce0f1f9be7002c9257815a723e6968b7ce9d1912158f221a9c6c7f774db6896643a33b0
$CDNENCFINISH_ADV2
.ENDS
*$
.SUBCKT VC_RES1_68k     1 2     4 5
$CDNENCSTART_ADV2
17f62b1fb318c25603aeb85644ae98a5d179ef807807791f6459efacb9d7ffc37a831b146dc0f06bb1ef275619162e6d8f7ad0dc708bf15ae1a1d5bd0ae623b2
4338d7c6b789b936510049641c41694601a828b94bca95e37d9595892e84fe4adde61b3186a8a4ced614ffd7534112da752ebe196261f5fadbdc1df943f8b053
b2e4e117ac3ae9d81b0a9590344b9f0be3a13d734fc0d5d3bc0ae1622ce0f1f9be7002c9257815a723e6968b7ce9d1912158f221a9c6c7f774db6896643a33b0
$CDNENCFINISH_ADV2
.ENDS
*$
.model Mbreakp PMOS_SIMPLE 
$CDNENCSTART_ADV2
17f62b1fb318c25603aeb85644ae98a5d179ef807807791f6459efacb9d7ffc37a831b146dc0f06bb1ef275619162e6d8f7ad0dc708bf15ae1a1d5bd0ae623b2
d0a62a7eecff332c2c1a7f28e691e8355b0d507d4d4167bdded4599b6b3f07ed49ca0bf013e9ee48384f4a7c200902eb9bd5e11d04cca5bd57a5eb5ba1dfe8a6
$CDNENCFINISH_ADV2
*$

WARNING(ORPSIM-15195): Model type unknown

Index has 123432 entries from 5469 file(s).

ERROR(ORPSIM-15141): Less than 2 connections at node 5V.
